
     RDKit          3D

  3  2  0  0  0  0  0  0  0  0999 V2000
    1.2182   -0.2540    0.0000 C   0  0  0  0  0  0  0  0  0  0  0  0
   -0.0553    0.5461   -0.0000 C   0  0  0  0  0  0  0  0  0  0  0  0
   -1.1629   -0.2921   -0.0000 O   0  0  0  0  0  0  0  0  0  0  0  0
  1  2  1  0
  2  3  1  0
M  END
$$$$

     RDKit          3D

  3  2  0  0  0  0  0  0  0  0999 V2000
    1.2298   -0.2755    0.0000 C   0  0  0  0  0  0  0  0  0  0  0  0
   -0.0256    0.5690   -0.0000 C   0  0  0  0  0  0  0  0  0  0  0  0
   -1.2042   -0.2934   -0.0000 N   0  0  0  0  0  0  0  0  0  0  0  0
  1  2  1  0
  2  3  1  0
M  END
$$$$
